44
Properties=species:S:1:pos:R:3:forces:R:3 C19H15N3O5RuS=T optimized=T with=T DFTB=T in=T AMS.=T energy=-48000.82163700531 pbc="F F F"
H        2.88881000       2.25568000      -1.33523000       0.48457691       0.28583128      -0.15168371
C        1.97813000       1.72201000      -1.09525000       0.40208164       0.21058404      -0.12356064
C        1.96597000       0.33985000      -1.01754000      -0.02508364      -0.30542827       0.08597949
C        0.79333000       2.40380000      -0.87639000      -0.33698230       0.11560892       0.16863189
H        2.86093000      -0.23836000      -1.20639000       0.47278416      -0.32552985      -0.08981259
C        0.78910000      -0.31725000      -0.67917000       1.07523898      -1.48634003      -0.24521021
H        0.74845000       3.48214000      -0.95431000      -0.04748210       0.56902050      -0.05482017
C       -0.36094000       1.69501000      -0.56582000      -0.57990802       1.71016936       0.19435905
C        0.64448000      -1.74755000      -0.53110000       1.13910353       1.27849201      -0.33163814
N       -0.35314000       0.35384000      -0.43503000      -1.87599242      -1.00844652      -0.17126626
C       -1.67933000       2.27175000      -0.42652000       1.54234425       0.31901957      -0.15629780
C        1.58613000      -2.72371000      -0.83996000       0.25951995      -0.21550764       0.08951437
N       -0.55430000      -2.08677000      -0.03275000      -1.75632115       0.52496238      -0.95153561
Ru      -2.08637000      -0.66464000       0.18856000       2.88076692       1.60860323       1.25260487
C       -2.02497000       3.61477000      -0.54216000       0.02824296       0.17614094      -0.00035213
N       -2.62292000       1.34272000      -0.22043000       0.20332014      -1.73388326      -0.13195880
H        2.54507000      -2.42756000      -1.24529000       0.51982516       0.16438894      -0.21804310
C        1.28742000      -4.06044000      -0.62656000       0.57465848       0.13451416      -0.27685293
C       -0.83850000      -3.36984000       0.19811000      -0.47895770      -0.90993767       0.65698341
O       -2.68621000      -2.35296000       1.07749000      -1.30187684       0.76049900       0.63303596
O       -4.04116000      -0.54063000       0.26976000      -0.79055254      -1.58118365      -0.12020346
S       -1.63297000      -0.00793000       2.36316000      -1.06720449      -1.43667960      -1.91502529
H       -1.24829000       4.35300000      -0.69433000       0.42113476       0.38691560      -0.08647516
C       -3.35644000       3.99225000      -0.46704000       0.27771225       0.36053198      -0.07547945
C       -3.90329000       1.69827000      -0.14885000      -1.19479800      -0.40867129       0.08118096
H        2.01156000      -4.82918000      -0.86548000       0.39165813      -0.41447015      -0.17086306
C        0.05269000      -4.38889000      -0.08494000      -0.62988126      -0.05651497       0.39840033
C       -2.17343000      -3.51854000       0.88601000       1.52419847      -0.40370458      -0.97567882
C       -4.78388000       0.49667000       0.08162000       0.80159137       1.46647899      -0.37967289
C       -0.29100000      -0.91147000       3.12332000      -0.58670294      -0.08975436       0.42090031
C       -3.07688000      -0.28416000       3.37856000       0.60935583      -0.36148518       0.54635253
O       -1.29789000       1.41208000       2.37042000       0.90080358       2.82115964       0.71879841
H        0.60796000      -0.72924000       2.54202000       0.43447571       0.17560622      -0.50779666
H       -0.55138000      -1.96508000       3.13307000      -0.07401392      -0.76476222       0.01199797
H       -0.18214000      -0.51985000       4.13191000       0.18728473       0.18725507       0.66337911
H       -3.86010000       0.37867000       3.02263000      -0.34761304       0.39727488      -0.39989256
H       -3.36674000      -1.32599000       3.27368000      -0.27345287      -0.65085806      -0.14080757
H       -2.80169000      -0.04601000       4.40282000       0.02485165       0.19752344       0.73141692
H       -3.63660000       5.03473000      -0.55181000      -0.14027362       0.57710782      -0.07208577
C       -4.32013000       3.00993000      -0.28528000      -0.26436876      -0.42229712       0.14905841
H       -0.23742000      -5.40983000       0.13065000      -0.25201739      -0.52077279       0.12846357
O       -2.62998000      -4.57327000       1.24638000      -0.66841886      -1.37446596       0.61412043
O       -5.98698000       0.52692000       0.07845000      -1.86941301       0.02796195       0.15401498
H       -5.37867000       3.23196000      -0.23289000      -0.59421471       0.01504328       0.04781983
